testSystems/4VSCSystem/dynawo/dynaflow_launcher/4vsc_system/outputs/finalState/outputIIDM.xml
<?xml version="1.0" encoding="UTF-8"?>
<iidm:network xmlns:iidm="http://www.powsybl.org/schema/iidm/1_4" xmlns:slt="http://www.powsybl.org/schema/iidm/ext/slack_terminal/1_1" id="4-VSC-system" caseDate="2023-08-01T00:00:00+02:00" forecastDistance="0" sourceFormat="Stepss">
    <iidm:substation id="_BUS__A_SS" name="BUS A_SS" country="FR" tso="RTE">
        <iidm:voltageLevel id="_BUS__A_VL" name="BUS A_VL" nominalV="400" topologyKind="BUS_BREAKER">
            <iidm:busBreakerTopology>
                <iidm:bus id="_BUS__A_TN" v="403.02908037126883" angle="2.3834473125194724"/>
            </iidm:busBreakerTopology>
            <iidm:generator id="_GEN__1_HVDC" name="HVDC1" energySource="OTHER" minP="-1200" maxP="1200" voltageRegulatorOn="true" targetP="-1125.2" targetV="403.02908000000002" targetQ="-102" bus="_BUS__A_TN" connectableBus="_BUS__A_TN" p="1124.2344828311664" q="32.093283444539622">
                <iidm:minMaxReactiveLimits minQ="-999" maxQ="360"/>
            </iidm:generator>
        </iidm:voltageLevel>
        <iidm:voltageLevel id="_BUS__A2_VL" name="BUS A2_VL" nominalV="225" topologyKind="BUS_BREAKER">
            <iidm:busBreakerTopology>
                <iidm:bus id="_BUS__A2_TN" v="220.19167435567832" angle="9.129874105388847"/>
            </iidm:busBreakerTopology>
        </iidm:voltageLevel>
        <iidm:twoWindingsTransformer id="_Tr__A2-A" name="A2-A" r="0.33333333300000001" x="10" g="0" b="0" ratedU1="225" ratedU2="400" bus1="_BUS__A2_TN" connectableBus1="_BUS__A2_TN" voltageLevelId1="_BUS__A2_VL" bus2="_BUS__A_TN" connectableBus2="_BUS__A_TN" voltageLevelId2="_BUS__A_VL" p1="1958.6389556346608" q1="378.04380581235426" p2="-1950.7877303651742" q2="-142.50704749221893">
            <iidm:ratioTapChanger lowTapPosition="0" tapPosition="0" loadTapChangingCapabilities="false">
                <iidm:step r="0" x="0" g="0" b="0" rho="1.0499999523162842"/>
                <iidm:step r="0" x="0" g="0" b="0" rho="1.0399999618530273"/>
                <iidm:step r="0" x="0" g="0" b="0" rho="1.0299999713897705"/>
                <iidm:step r="0" x="0" g="0" b="0" rho="1.0199999809265137"/>
                <iidm:step r="0" x="0" g="0" b="0" rho="1.0099999904632568"/>
                <iidm:step r="0" x="0" g="0" b="0" rho="1"/>
                <iidm:step r="0" x="0" g="0" b="0" rho="0.99000000953674316"/>
                <iidm:step r="0" x="0" g="0" b="0" rho="0.98000001907348633"/>
                <iidm:step r="0" x="0" g="0" b="0" rho="0.97000002861022949"/>
                <iidm:step r="0" x="0" g="0" b="0" rho="0.95999997854232788"/>
                <iidm:step r="0" x="0" g="0" b="0" rho="0.94999998807907104"/>
            </iidm:ratioTapChanger>
        </iidm:twoWindingsTransformer>
    </iidm:substation>
    <iidm:substation id="_BUS__B_SS" name="BUS B_SS" country="FR" tso="RTE">
        <iidm:voltageLevel id="_BUS__B_VL" name="BUS B_VL" nominalV="400" topologyKind="BUS_BREAKER">
            <iidm:busBreakerTopology>
                <iidm:bus id="_BUS__B_TN" v="402.16696043108271" angle="2.0684768909054316"/>
            </iidm:busBreakerTopology>
            <iidm:generator id="_GEN__2_HVDC" name="HVDC2" energySource="OTHER" minP="-1700" maxP="1700" voltageRegulatorOn="true" targetP="-1607" targetV="402.16696000000002" targetQ="-237.40000000000001" bus="_BUS__B_TN" connectableBus="_BUS__B_TN" p="1605.6321840108189" q="-346.58446665452635">
                <iidm:minMaxReactiveLimits minQ="-999" maxQ="504"/>
            </iidm:generator>
        </iidm:voltageLevel>
        <iidm:voltageLevel id="_BUS__B2_VL" name="BUS B2_VL" nominalV="225" topologyKind="BUS_BREAKER">
            <iidm:busBreakerTopology>
                <iidm:bus id="_BUS__B2_TN" v="223.32033538595758" angle="9.1315555489149247"/>
            </iidm:busBreakerTopology>
        </iidm:voltageLevel>
        <iidm:twoWindingsTransformer id="_Tr__B2-B" name="B2-B" r="0.33333333300000001" x="10" g="0" b="0" ratedU1="225" ratedU2="400" bus1="_BUS__B2_TN" connectableBus1="_BUS__B2_TN" voltageLevelId1="_BUS__B2_VL" bus2="_BUS__B_TN" connectableBus2="_BUS__B_TN" voltageLevelId2="_BUS__B_VL" p1="1958.3270305037242" q1="-148.69570568923837" p2="-1950.1699571788658" q2="393.4079056797051">
            <iidm:ratioTapChanger lowTapPosition="0" tapPosition="5" loadTapChangingCapabilities="false">
                <iidm:step r="0" x="0" g="0" b="0" rho="1.0499999523162842"/>
                <iidm:step r="0" x="0" g="0" b="0" rho="1.0399999618530273"/>
                <iidm:step r="0" x="0" g="0" b="0" rho="1.0299999713897705"/>
                <iidm:step r="0" x="0" g="0" b="0" rho="1.0199999809265137"/>
                <iidm:step r="0" x="0" g="0" b="0" rho="1.0099999904632568"/>
                <iidm:step r="0" x="0" g="0" b="0" rho="1"/>
                <iidm:step r="0" x="0" g="0" b="0" rho="0.99000000953674316"/>
                <iidm:step r="0" x="0" g="0" b="0" rho="0.98000001907348633"/>
                <iidm:step r="0" x="0" g="0" b="0" rho="0.97000002861022949"/>
                <iidm:step r="0" x="0" g="0" b="0" rho="0.95999997854232788"/>
                <iidm:step r="0" x="0" g="0" b="0" rho="0.94999998807907104"/>
            </iidm:ratioTapChanger>
        </iidm:twoWindingsTransformer>
    </iidm:substation>
    <iidm:substation id="_BUS__C_SS" name="BUS C_SS" country="FR" tso="RTE">
        <iidm:voltageLevel id="_BUS__C_VL" name="BUS C_VL" nominalV="400" topologyKind="BUS_BREAKER">
            <iidm:busBreakerTopology>
                <iidm:bus id="_BUS__C_TN" v="400" angle="0"/>
            </iidm:busBreakerTopology>
            <iidm:generator id="_GEN__3_EQUIV" name="Slack" energySource="OTHER" minP="-9999" maxP="9999" voltageRegulatorOn="true" targetP="0" targetV="400" targetQ="0" bus="_BUS__C_TN" connectableBus="_BUS__C_TN" p="-0" q="0.050351029496547003">
                <iidm:minMaxReactiveLimits minQ="-9999" maxQ="9999"/>
            </iidm:generator>
            <iidm:load id="_LOAD__1" name="LOAD1" loadType="UNDEFINED" p0="1168.7" q0="177.59999999999999" bus="_BUS__C_TN" connectableBus="_BUS__C_TN" p="1168.7" q="177.59999999999999"/>
        </iidm:voltageLevel>
    </iidm:substation>
    <iidm:substation id="_BUS__E_SS" name="BUS E_SS" country="FR" tso="RTE">
        <iidm:voltageLevel id="_BUS__E_VL" name="BUS E_VL" nominalV="225" topologyKind="BUS_BREAKER">
            <iidm:busBreakerTopology>
                <iidm:bus id="_BUS__E_TN" v="223.83331487871982" angle="11.048564915639835"/>
            </iidm:busBreakerTopology>
            <iidm:generator id="_GEN__4_WP1" name="WP1" energySource="OTHER" minP="-2400" maxP="2400" voltageRegulatorOn="false" targetP="1991.9000000000001" targetV="225" targetQ="-146.59999999999999" bus="_BUS__E_TN" connectableBus="_BUS__E_TN" p="-1991.9000000000001" q="146.60000000000005">
                <iidm:minMaxReactiveLimits minQ="-999" maxQ="720"/>
            </iidm:generator>
            <iidm:shunt id="_SHUNT1__E_SS" name="SHUNT E_SS" sectionCount="1" voltageRegulatorOn="false" bus="_BUS__E_TN" connectableBus="_BUS__E_TN" q="296.8969094865958">
                <iidm:shuntLinearModel bPerSection="-0.0059259259999999998" maximumSectionCount="1"/>
            </iidm:shunt>
        </iidm:voltageLevel>
    </iidm:substation>
    <iidm:substation id="_BUS__F_SS" name="BUS F_SS" country="FR" tso="RTE">
        <iidm:voltageLevel id="_BUS__F_VL" name="BUS F_VL" nominalV="225" topologyKind="BUS_BREAKER">
            <iidm:busBreakerTopology>
                <iidm:bus id="_BUS__F_TN" v="224.93950195862655" angle="11.272228877498188"/>
            </iidm:busBreakerTopology>
            <iidm:generator id="_GEN__5_WP2" name="WP2" energySource="OTHER" minP="-2400" maxP="2400" voltageRegulatorOn="true" targetP="1991.7" targetV="224.93949799999999" targetQ="-177.80000000000001" bus="_BUS__F_TN" connectableBus="_BUS__F_TN" p="-1993.6310343376676" q="783.26377997246914">
                <iidm:minMaxReactiveLimits minQ="-999" maxQ="720"/>
            </iidm:generator>
            <iidm:shunt id="SHUNT F_SS" name="SHUNT F_SS" sectionCount="1" voltageRegulatorOn="false" bus="_BUS__F_TN" connectableBus="_BUS__F_TN" q="199.8924480184871">
                <iidm:shuntLinearModel bPerSection="-0.003950617" maximumSectionCount="1"/>
            </iidm:shunt>
        </iidm:voltageLevel>
    </iidm:substation>
    <iidm:line id="_Line1__BUS__A-_BUS__B" name="A-B_1" r="0.51000000000000001" x="10.24" g1="0" b1="4.8000000000000001e-05" g2="0" b2="4.8000000000000001e-05" bus1="_BUS__A_TN" connectableBus1="_BUS__A_TN" voltageLevelId1="_BUS__A_VL" bus2="_BUS__B_TN" connectableBus2="_BUS__B_TN" voltageLevelId2="_BUS__B_VL" p1="88.496074870260415" q1="21.966475841400328" p2="-88.468704249498586" q2="-36.977110487801276"/>
    <iidm:line id="_Line2__BUS__A-_BUS__B" name="A-B_2" r="0.51000000000000001" x="10.24" g1="0" b1="4.8000000000000001e-05" g2="0" b2="4.8000000000000001e-05" bus1="_BUS__A_TN" connectableBus1="_BUS__A_TN" voltageLevelId1="_BUS__A_VL" bus2="_BUS__B_TN" connectableBus2="_BUS__B_TN" voltageLevelId2="_BUS__B_VL" p1="88.496074870260415" q1="21.966475841400328" p2="-88.468704249498586" q2="-36.977110487801276"/>
    <iidm:line id="_Line3__BUS__A-_BUS__C" name="A-C_1" r="1.04" x="20.800000000000001" g1="0" b1="9.7999999999999997e-05" g2="0" b2="9.7999999999999997e-05" bus1="_BUS__A_TN" connectableBus1="_BUS__A_TN" voltageLevelId1="_BUS__A_VL" bus2="_BUS__C_TN" connectableBus2="_BUS__C_TN" voltageLevelId2="_BUS__C_VL" p1="324.78049531799513" q1="33.240378775254179" p2="-324.08965479367112" q2="-51.021947372012733"/>
    <iidm:line id="_Line4__BUS__A-_BUS__C" name="A-C_2" r="1.04" x="20.800000000000001" g1="0" b1="9.7999999999999997e-05" g2="0" b2="9.7999999999999997e-05" bus1="_BUS__A_TN" connectableBus1="_BUS__A_TN" voltageLevelId1="_BUS__A_VL" bus2="_BUS__C_TN" connectableBus2="_BUS__C_TN" voltageLevelId2="_BUS__C_VL" p1="324.78049531799513" q1="33.240378775254179" p2="-324.08965479367112" q2="-51.021947372012733"/>
    <iidm:line id="_Line5__BUS__B-_BUS__C" name="B-C_1" r="1.1200000000000001" x="22.399999999999999" g1="0" b1="0.000105" g2="0" b2="0.000105" bus1="_BUS__B_TN" connectableBus1="_BUS__B_TN" voltageLevelId1="_BUS__B_VL" bus2="_BUS__C_TN" connectableBus2="_BUS__C_TN" voltageLevelId2="_BUS__C_VL" p1="260.73758128648439" q1="13.565432019292128" p2="-260.26034520632902" q2="-37.803228142735179"/>
    <iidm:line id="_Line6__BUS__B-_BUS__C" name="B-C_2" r="1.1200000000000001" x="22.399999999999999" g1="0" b1="0.000105" g2="0" b2="0.000105" bus1="_BUS__B_TN" connectableBus1="_BUS__B_TN" voltageLevelId1="_BUS__B_VL" bus2="_BUS__C_TN" connectableBus2="_BUS__C_TN" voltageLevelId2="_BUS__C_VL" p1="260.73758128648439" q1="13.565432019292128" p2="-260.26034520632902" q2="-37.803228142735179"/>
    <iidm:line id="_Line7__BUS__A2-_BUS__E" name="A2-E" r="0.41999999999999998" x="0.82999999999999996" g1="0" b1="0.0089999999999999993" g2="0" b2="0.0089999999999999993" bus1="_BUS__A2_TN" connectableBus1="_BUS__A2_TN" voltageLevelId1="_BUS__A2_VL" bus2="_BUS__E_TN" connectableBus2="_BUS__E_TN" voltageLevelId2="_BUS__E_VL" p1="-1958.6389556346592" q1="-378.04380581235523" p2="1991.9003991745235" q2="-443.49678298619233"/>
    <iidm:line id="_Line8__BUS__B2-_BUS__F" name="B2-F" r="0.41999999999999998" x="0.82999999999999996" g1="0" b1="0.0089999999999999993" g2="0" b2="0.0089999999999999993" bus1="_BUS__B2_TN" connectableBus1="_BUS__B2_TN" voltageLevelId1="_BUS__B2_VL" bus2="_BUS__F_TN" connectableBus2="_BUS__F_TN" voltageLevelId2="_BUS__F_VL" p1="-1958.3270305037306" q1="148.69570568923325" p2="1993.6310932279077" q2="-983.15591880750117"/>
    <iidm:extension id="_BUS__C_VL">
        <slt:slackTerminal id="_GEN__3_EQUIV"/>
    </iidm:extension>
</iidm:network>
